[General]
network = BabelExample
scheduler-class = "inet::RealTimeScheduler"
sim-time-limit = 3600s

*.numHosts = 3
*.*.numLoInterfaces = 0

*.visualizer.interfaceTableVisualizer[0].displayInterfaceTables = true
*.visualizer.mediumVisualizer[0].displayCommunicationRanges = true
*.visualizer.numDataLinkVisualizers = 2
*.visualizer.dataLinkVisualizer[0].displayLinks = true
*.visualizer.dataLinkVisualizer[0].lineColor = "red1"
*.visualizer.dataLinkVisualizer[0].packetFilter = "*ICMPv4*"
*.visualizer.dataLinkVisualizer[1].displayLinks = true
*.visualizer.dataLinkVisualizer[1].lineColor = "darkcyan"
*.visualizer.dataLinkVisualizer[1].packetFilter = "*BABEL*"

*.*.wlan[*].mac.fcsMode = "computed"
*.*.wlan[*].radio.transmitter.power = 2mW # reduces communication range to get non-trivial pathes

*.*.mobility.constraintAreaMinX = 0m
*.*.mobility.constraintAreaMinY = 0m
*.*.mobility.constraintAreaMinZ = 0m
*.*.mobility.constraintAreaMaxX = 600m
*.*.mobility.constraintAreaMaxY = 400m
*.*.mobility.constraintAreaMaxZ = 0m

*.*.hasTcp = false
*.*.hasUdp = false
*.*.hasIpv4 = false 
*.*.hasIpv6 = false

*.host[*].mobility.initFromDisplayString = false
*.host[0].mobility.typename = "CircleMobility"
*.host[0].mobility.speed = 10mps
*.host[0].mobility.cx = 150m
*.host[0].mobility.cy = 200m
*.host[0].mobility.r = 120m
*.host[0].mobility.startAngle = 180deg
*.host[1].mobility.typename = "StationaryMobility"
*.host[1].mobility.initialX = 300m
*.host[1].mobility.initialY = 200m
*.host[2].mobility.typename = "CircleMobility"
*.host[2].mobility.speed = 13mps
*.host[2].mobility.cx = 450m
*.host[2].mobility.cy = 200m
*.host[2].mobility.r = 120m
*.host[2].mobility.startAngle = 0deg

*.host[*].wlan[0].typename = "ExtUpperIeee80211Interface"
*.host[*].wlan[0].copyConfiguration = "copyFromExt"
*.host[0].wlan[0].device = "tap0"
*.host[0].wlan[0].namespace = "host0"
*.host[1].wlan[0].device = "tap1"
*.host[1].wlan[0].namespace = "host1"
*.host[2].wlan[0].device = "tap2"
*.host[2].wlan[0].namespace = "host2"
